*SPEF "IEEE 1481-1998"
*DESIGN "counter"
*DATE "Mon Jul  3 05:23:48 2023"
*VENDOR "Cadence Design Systems, Inc."
*PROGRAM "Innovus"
*VERSION "21.15-s110_1"
*DESIGN_FLOW "PIN_CAP NONE" "NAME_SCOPE LOCAL"
*DIVIDER /
*DELIMITER :
*BUS_DELIMITER []
*T_UNIT 1 NS
*C_UNIT 1 PF
*R_UNIT 1 OHM
*L_UNIT 1 HENRY

// MMMC spef file for corner 'Default_RC'

*NAME_MAP

*1 clk
*2 rst
*3 q[3]
*4 q[2]
*5 q[1]
*6 q[0]
*7 n_0
*8 n_1
*9 n_2
*10 n_3
*11 n_4
*12 n_5
*13 n_6
*14 n_7
*15 n_8
*16 n_9
*17 n_10
*18 q_reg\[0\]
*19 q_reg\[2\]
*20 g214__2398
*21 g215__5107
*22 g217__6260
*23 g216__4319
*24 g218__8428
*25 g220__5526
*26 g219__6783
*27 g221__3680
*28 g223
*29 q_reg\[3\]
*30 q_reg\[1\]


*PORTS

*1 I *C 13.775 25.23
*2 I *C 18.705 25.23
*3 O *C 13.195 0
*4 O *C 13.775 0
*5 O *C 28.42 13.485
*6 O *C 0 13.485


*D_NET *1 0.00365908

*CONN
*I *18:CK I *C 8.555 17.835 *L 0.00175 *D DFFRHQX2
*P *1 I *C 13.775 25.23 *L 0
*I *19:CK I *C 14.935 10.005 *L 0.00175 *D DFFRHQX2
*I *30:CK I *C 18.995 15.515 *L 0.0018 *D DFFRX2
*I *29:CK I *C 12.615 7.105 *L 0.0018 *D DFFRX2

*CAP
1 *1:1 0.000229932
2 *1:2 0.000229932
3 *1:3 0.000227983
4 *1:4 0.000278646
5 *1:5 9.46779e-05
6 *1:6 5.06629e-05
7 *1 9.46779e-05
8 *1:8 0.000378711
9 *1:9 0.000392237
10 *1:10 0.000121729
11 *1:11 0.000164655
12 *1:12 0.000121729
13 *1:13 0.000164655
14 *1:14 0.000121729
15 *1:15 4.05762e-05
16 *1:16 0.00032461
17 *1:17 4.05762e-05
18 *1:18 0.000216407
19 *1:21 0.000101326
20 *1:22 0.000101326
21 *1:23 8.11525e-05
22 *1:24 8.11525e-05

*RES
1 *1:24 *29:CK 1.4
2 *1:23 *1:24 0.745732
3 *1:22 *1:23 1.4
4 *1:21 *1:22 0.99431
5 *1:18 *1:21 1.4
6 *1:17 *30:CK 1.4
7 *1:16 *19:CK 1.4
8 *1:16 *1:18 1.98862
9 *1:15 *1:17 0.372866
10 *1:14 *1:16 0.99431
11 *1:13 *1:15 1.4
12 *1:12 *1:14 0.124289
13 *1:11 *1:13 1.61575
14 *1:10 *1:12 0.99431
15 *1:10 *1:11 1.4
16 *1:9 *1:10 0.124289
17 *1:8 *1:9 3.48009
18 *1:6 *1:8 1.4
19 *1:5 *1 0.870021
20 *1:4 *1:6 0.497155
21 *1:4 *1:5 1.4
22 *1:3 *1:4 2.2372
23 *1:2 *1:3 1.4
24 *1:1 *1:2 2.11291
25 *18:CK *1:1 1.4
*END

*D_NET *2 0.00064922

*CONN
*I *28:A I *C 18.715 17.8975 *L 0.00163 *D INVXL
*P *2 I *C 18.705 25.23 *L 0

*CAP
1 *2:1 0.00032461
2 *2 0.00032461

*RES
1 *2:1 *2 2.98293
2 *28:A *2:1 1.4
*END

*D_NET *3 0.00113613

*CONN
*I *29:Q O *C 13.485 7.105 *L 0 *D DFFRX2
*I *26:B I *C 12.905 10.005 *L 0.00167 *D NAND2XL
*P *3 O *C 13.195 0 *L 0.15

*CAP
1 *3:0 0.000162305
2 *3:1 8.11524e-05
3 *3:2 0.000135254
4 *3:3 0.000108203
5 *3:4 2.70508e-05
6 *3:6 9.46779e-05
7 *3:8 5.41016e-05
8 *3:9 5.41016e-05
9 *3:10 0.000162305
10 *3:11 0.000162305
11 *3:12 5.41016e-05
12 *3 4.05762e-05

*RES
1 *3:12 *3 0.372866
2 *3:11 *3:12 0.124289
3 *3:10 *3:11 1.36718
4 *3:9 *3:10 0.124289
5 *3:8 *3:9 0.372866
6 *3:6 *3:8 0.124289
7 *3:4 *26:B 1.4
8 *3:3 *3:6 0.745732
9 *3:3 *29:Q 1.4
10 *3:2 *3:4 0.248578
11 *3:1 *3:3 0.248578
12 *3:0 *3:2 0.99431
13 *3:0 *3:1 0.497155
*END

*D_NET *4 0.00172735

*CONN
*I *25:AN I *C 11.455 9.715 *L 0.00178 *D NAND2BX1
*I *26:A I *C 13.485 10.005 *L 0.00157 *D NAND2XL
*I *27:B I *C 16.385 12.615 *L 0.00167 *D NAND2XL
*I *19:Q O *C 14.355 10.295 *L 0 *D DFFRHQX2
*P *4 O *C 13.775 0 *L 0.15

*CAP
1 *4:2 8.86601e-05
2 *4:4 0.000215317
3 *4:5 4.05762e-05
4 *4:6 0.000126657
5 *4:7 6.7627e-05
6 *4:10 0.000121729
7 *4:11 0.000297559
8 *4:12 0.000121729
9 *4:13 2.70508e-05
10 *4:14 0.000256983
11 *4:16 1.26657e-05
12 *4:17 0.00017583
13 *19:Q 1.26657e-05
14 *4 0.000162305

*RES
1 *4:17 *4 1.49146
2 *4:16 *19:Q 0.124289
3 *4:14 *4:17 0.124289
4 *4:13 *4:16 1.4
5 *4:12 *27:B 1.4
6 *4:11 *4:14 2.2372
7 *4:11 *4:13 0.248578
8 *4:10 *4:12 1.1186
9 *4:7 *4:11 0.248578
10 *4:6 *4:10 1.4
11 *4:5 *26:A 1.4
12 *4:5 *4:8 0.220714
13 *4:5 *4:7 0.372866
14 *4:4 *4:6 1.24289
15 *4:4 *4:5 1.4
16 *4:2 *4:4 0.870021
17 *4:1 *25:AN 1.4
18 *4:1 *4:2 1.4
19 *4:0 *4:1 0.220714
*END

*D_NET *5 0.00141381

*CONN
*I *27:A I *C 16.965 12.615 *L 0.00157 *D NAND2XL
*I *22:A1 I *C 19.865 12.615 *L 0.00271 *D OAI32X1
*I *30:Q O *C 19.865 15.515 *L 0 *D DFFRX2
*P *5 O *C 28.42 13.485 *L 0.15

*CAP
1 *27:A 8.86601e-05
2 *5:1 8.86601e-05
3 *5:2 4.05762e-05
4 *5:3 8.11525e-05
5 *5:4 6.7627e-05
6 *5:5 6.7627e-05
7 *5:6 0.000148779
8 *5:8 0.000108203
9 *5:9 0.000278243
10 *5:11 0.000290103
11 *5:12 8.302e-05
12 *5 7.116e-05

*RES
1 *5:12 *5 0.745732
2 *5:11 *5:12 0.124289
3 *5:9 *5:11 2.73435
4 *5:8 *30:Q 1.4
5 *5:6 *5:9 1.4
6 *5:6 *5:8 0.99431
7 *5:5 *22:A1 1.4
8 *5:5 *5:6 0.372866
9 *5:4 *5:5 0.248578
10 *5:3 *5:4 0.372866
11 *5:2 *5:3 0.372866
12 *5:1 *5:2 1.4
13 *27:A *5:1 0.870021
*END

*D_NET *6 0.00297547

*CONN
*P *6 O *C 0 13.485 *L 0.15
*I *24:A I *C 7.105 15.225 *L 0.00157 *D NAND2XL
*I *18:Q O *C 7.975 17.545 *L 0 *D DFFRHQX2
*I *20:B0 I *C 7.685 10.005 *L 0.00277 *D AOI21X1
*I *23:S0 I *C 13.485 12.615 *L 0.00372 *D MXI2XL
*I *22:A0 I *C 19.575 12.615 *L 0.00257 *D OAI32X1

*CAP
1 *6 5.06629e-05
2 *6:1 5.06629e-05
3 *6:2 8.11525e-05
4 *6:3 8.11525e-05
5 *6:4 0.000240649
6 *24:A 0.000240649
7 *6:6 0.000284034
8 *6:7 0.000135254
9 *6:8 0.00017583
10 *6:9 3.79972e-05
11 *6:10 5.41016e-05
12 *18:Q 3.79972e-05
13 *6:12 9.46779e-05
14 *6:13 0.000278646
15 *6:14 6.7627e-05
16 *6:15 0.000468632
17 *6:17 0.000189986
18 *6:18 4.05762e-05
19 *6:19 8.11525e-05
20 *6:20 4.05762e-05
21 *6:21 0.000135254
22 *6:23 8.11524e-05
23 *6:24 2.70508e-05

*RES
1 *6:24 *22:A0 1.4
2 *6:23 *6:24 0.248578
3 *6:21 *6:23 0.497155
4 *6:20 *23:S0 1.4
5 *6:19 *6:21 0.745732
6 *6:18 *6:20 0.372866
7 *6:17 *6:19 1.4
8 *6:15 *6:18 1.4
9 *6:15 *6:17 1.86433
10 *6:14 *20:B0 1.4
11 *6:13 *6:15 2.73435
12 *6:12 *6:14 0.621444
13 *6:12 *6:13 1.4
14 *6:10 *6:12 0.248578
15 *6:9 *18:Q 0.372866
16 *6:8 *6:10 0.248578
17 *6:7 *6:9 1.4
18 *6:6 *6:8 1.36718
19 *6:6 *6:7 1.24289
20 *24:A *6:6 1.4
21 *6:4 *24:A 2.36149
22 *6:3 *6:4 1.4
23 *6:2 *6:3 0.745732
24 *6:1 *6:2 1.4
25 *6 *6:1 0.497155
*END

*D_NET *7 0.000263631

*CONN
*I *23:B I *C 13.78 12.275 *L 0.00164 *D MXI2XL
*I *27:Y O *C 16.385 13.195 *L 0 *D NAND2XL

*CAP
1 *7:1 2.70508e-05
2 *7:2 8.11524e-05
3 *7:3 5.41016e-05
4 *7:4 5.06629e-05
5 *27:Y 5.06629e-05

*RES
1 *7:4 *27:Y 0.497155
2 *7:3 *7:4 1.4
3 *7:2 *7:3 0.497155
4 *7:1 *7:2 0.248578
5 *23:B *7:1 1.4
*END

*D_NET *8 0.000202652

*CONN
*I *20:A0 I *C 8.265 9.715 *L 0.00265 *D AOI21X1
*I *25:Y O *C 10.585 9.135 *L 0 *D NAND2BX1

*CAP
1 *20:A0 5.06629e-05
2 *8:1 6.33287e-05
3 *8:2 5.06629e-05
4 *25:Y 3.79972e-05

*RES
1 *8:2 *25:Y 0.372866
2 *8:1 *8:2 0.124289
3 *20:A0 *8:1 0.497155
*END

*D_NET *9 0.00233875

*CONN
*I *29:QN O *C 14.355 7.105 *L 0 *D DFFRX2
*I *22:A2 I *C 20.155 12.615 *L 0.00281 *D OAI32X1
*I *24:B I *C 7.685 15.225 *L 0.00167 *D NAND2XL

*CAP
1 *9:3 0.000506629
2 *9:4 0.000253315
3 *9:5 0.000253315
4 *9:6 0.000243457
5 *9:7 0.000284034
6 *9:8 0.000243457
7 *9:9 0.00032461
8 *9:11 0.000135254
9 *9:12 9.46779e-05

*RES
1 *9:12 *24:B 1.4
2 *9:11 *9:12 0.870021
3 *9:9 *9:11 0.372866
4 *9:8 *22:A2 1.4
5 *9:7 *9:9 2.61006
6 *9:6 *9:8 2.2372
7 *9:5 *9:7 1.4
8 *9:4 *9:6 1.4
9 *9:3 *9:5 2.48578
10 *9:3 *9:4 2.48578
11 *9:1 *9:3 1.4
12 *9:1 *29:QN 1.4
13 *9:0 *9:1 0.220714
*END

*D_NET *10 0.000202652

*CONN
*I *24:Y O *C 7.685 14.645 *L 0 *D NAND2XL
*I *21:A0 I *C 10.295 14.935 *L 0.00265 *D AOI21X1

*CAP
1 *24:Y 0.000101326
2 *21:A0 0.000101326

*RES
1 *24:Y *21:A0 0.99431
*END

*D_NET *11 0.00032461

*CONN
*I *23:Y O *C 12.905 13.195 *L 0 *D MXI2XL
*I *30:D I *C 13.775 15.225 *L 0.00166 *D DFFRX2

*CAP
1 *11:1 2.70508e-05
2 *11:2 6.7627e-05
3 *11:3 0.000135254
4 *11:4 9.46779e-05

*RES
1 *11:4 *30:D 1.4
2 *11:3 *11:4 0.870021
3 *11:2 *11:3 0.372866
4 *11:1 *11:2 0.248578
5 *23:Y *11:1 1.4
*END

*D_NET *12 0.00175051

*CONN
*I *25:B I *C 10.585 9.715 *L 0.00284 *D NAND2BX1
*I *21:B0 I *C 10.875 15.225 *L 0.00277 *D AOI21X1
*I *22:B0 I *C 21.315 12.905 *L 0.00272 *D OAI32X1
*I *30:QN O *C 20.735 15.515 *L 0 *D DFFRX2

*CAP
1 *12:1 4.05762e-05
2 *12:2 5.41016e-05
3 *12:3 0.000162305
4 *12:4 0.000216407
5 *12:5 0.000455966
6 *12:6 6.7627e-05
7 *12:7 0.000455966
8 *12:9 9.46779e-05
9 *12:10 8.11524e-05
10 *12:11 4.05762e-05
11 *12:12 5.41016e-05
12 *12:14 2.70508e-05

*RES
1 *12:14 *30:QN 1.4
2 *12:12 *12:14 0.248578
3 *12:11 *22:B0 1.4
4 *12:10 *12:12 0.248578
5 *12:9 *12:11 0.372866
6 *12:9 *12:10 0.497155
7 *12:7 *12:9 1.4
8 *12:6 *21:B0 1.4
9 *12:5 *12:7 4.4744
10 *12:4 *12:6 0.621444
11 *12:4 *12:5 1.4
12 *12:3 *12:4 1.36718
13 *12:2 *12:3 0.124289
14 *12:1 *12:2 0.372866
15 *25:B *12:1 1.4
*END

*D_NET *13 0.000216407

*CONN
*I *22:Y O *C 20.445 11.745 *L 0 *D OAI32X1
*I *19:D I *C 20.735 9.715 *L 0.00231 *D DFFRHQX2

*CAP
1 *13:0 4.05762e-05
2 *13:1 2.70508e-05
3 *13:2 8.11525e-05
4 *13:4 6.7627e-05

*RES
1 *13:4 *19:D 1.4
2 *13:2 *13:4 0.621444
3 *13:1 *22:Y 1.4
4 *13:0 *13:2 0.124289
5 *13:0 *13:1 0.248578
*END

*D_NET *14 0.00196989

*CONN
*I *22:B1 I *C 20.735 12.615 *L 0.00282 *D OAI32X1
*I *23:A I *C 12.615 12.615 *L 0.0017 *D MXI2XL
*I *26:Y O *C 12.905 9.425 *L 0 *D NAND2XL
*I *20:A1 I *C 7.975 9.715 *L 0.00278 *D AOI21X1
*I *21:A1 I *C 10.585 14.935 *L 0.00278 *D AOI21X1

*CAP
1 *14:2 0.000354641
2 *14:4 0.000367306
3 *14:5 3.79972e-05
4 *14:6 2.53315e-05
5 *14:7 0.000108203
6 *14:8 0.000108203
7 *14:9 0.000101326
8 *14:10 2.53315e-05
9 *23:A 2.53315e-05
10 *14:12 0.000189986
11 *26:Y 2.53315e-05
12 *14:14 1.26657e-05
13 *14:15 0.000101326
14 *14:16 0.000108203
15 *14:17 0.000121729
16 *14:18 0.000121729
17 *14:19 0.000121729
18 *14:20 1.35254e-05

*RES
1 *14:20 *21:A1 1.4
2 *14:19 *20:A1 1.4
3 *14:18 *14:20 0.124289
4 *14:17 *14:19 1.1186
5 *14:16 *14:18 0.99431
6 *14:15 *14:17 1.4
7 *14:14 *14:16 1.4
8 *14:12 *14:15 0.99431
9 *14:12 *14:14 0.124289
10 *14:10 *26:Y 0.248578
11 *14:9 *14:12 0.745733
12 *14:9 *23:A 0.248578
13 *14:8 *14:10 1.4
14 *14:7 *14:9 1.4
15 *14:7 *14:8 0.99431
16 *14:6 *14:7 1.4
17 *14:5 *14:6 0.248578
18 *14:4 *14:5 0.124289
19 *14:2 *14:4 3.48009
20 *14:1 *22:B1 1.4
21 *14:1 *14:2 1.4
22 *14:0 *14:1 0.220714
*END

*D_NET *15 0.00056119

*CONN
*I *21:Y O *C 11.455 14.935 *L 0 *D AOI21X1
*I *18:D I *C 14.355 18.125 *L 0.00231 *D DFFRHQX2

*CAP
1 *21:Y 5.06629e-05
2 *15:1 5.06629e-05
3 *15:2 0.000121729
4 *15:3 0.000202881
5 *15:4 0.000108203
6 *15:5 2.70508e-05

*RES
1 *15:5 *18:D 1.4
2 *15:4 *15:5 0.248578
3 *15:3 *15:4 0.745732
4 *15:2 *15:3 1.1186
5 *15:1 *15:2 1.4
6 *21:Y *15:1 0.497155
*END

*D_NET *16 0.000270508

*CONN
*I *20:Y O *C 7.105 9.715 *L 0 *D AOI21X1
*I *29:D I *C 7.395 7.395 *L 0.00166 *D DFFRX2

*CAP
1 *16:0 4.05762e-05
2 *16:1 2.70508e-05
3 *16:2 0.000108203
4 *16:4 9.46779e-05

*RES
1 *16:4 *29:D 1.4
2 *16:2 *16:4 0.870021
3 *16:1 *20:Y 1.4
4 *16:0 *16:2 0.124289
5 *16:0 *16:1 0.248578
*END

*D_NET *17 0.00289696

*CONN
*I *29:RN I *C 9.135 7.395 *L 0.00372 *D DFFRX2
*I *18:RN I *C 10.295 17.835 *L 0.0044 *D DFFRHQX2
*I *30:RN I *C 15.515 15.225 *L 0.00372 *D DFFRX2
*I *28:Y O *C 19.0775 17.835 *L 0 *D INVXL
*I *19:RN I *C 16.675 10.005 *L 0.0044 *D DFFRHQX2

*CAP
1 *17:1 4.05762e-05
2 *17:2 5.41016e-05
3 *17:3 0.000243457
4 *17:4 0.000243457
5 *17:5 4.05762e-05
6 *17:6 5.41016e-05
7 *17:7 0.000121729
8 *17:8 0.000121729
9 *17:9 5.41016e-05
10 *17:10 9.46779e-05
11 *17:11 0.000227983
12 *17:12 6.7627e-05
13 *17:13 0.000379972
14 *17:15 0.000151989
15 *17:16 5.41016e-05
16 *17:17 6.7627e-05
17 *17:18 9.46779e-05
18 *17:19 6.7627e-05
19 *17:20 5.41016e-05
20 *17:23 0.000135254
21 *17:24 0.000135254
22 *17:25 0.000121729
23 *17:26 0.000162305
24 *17:27 8.11524e-05
25 *17:28 2.70508e-05

*RES
1 *17:28 *19:RN 1.4
2 *17:27 *17:28 0.248578
3 *17:26 *17:27 0.497155
4 *17:25 *17:26 0.99431
5 *17:24 *17:25 0.124289
6 *17:23 *17:24 1.1186
7 *17:20 *17:23 0.124289
8 *17:19 *28:Y 1.4
9 *17:18 *30:RN 1.4
10 *17:18 *17:20 0.372866
11 *17:17 *17:19 0.621444
12 *17:16 *17:18 0.497155
13 *17:15 *17:17 1.4
14 *17:13 *17:16 1.4
15 *17:13 *17:15 1.49147
16 *17:12 *18:RN 1.4
17 *17:11 *17:13 2.2372
18 *17:10 *17:12 0.621444
19 *17:10 *17:11 1.4
20 *17:9 *17:10 0.248578
21 *17:8 *17:9 0.248578
22 *17:7 *17:8 0.870021
23 *17:6 *17:7 0.248578
24 *17:5 *17:6 0.248578
25 *17:4 *17:5 0.124289
26 *17:3 *17:4 2.11291
27 *17:2 *17:3 0.124289
28 *17:1 *17:2 0.372866
29 *29:RN *17:1 1.4
*END

